%nprocshared=20
%mem=5GB
#p m062x/6-311+g(2df,2p) opt=(verytight,gdiis) freq IOP(2/16=3) 

Gaussian input prepared by ASE

0 2
C                 2.1797000000        0.3125000000       -0.5781000000
C                 0.9307000000       -0.2492000000        0.0127000000
C                -0.2498000000       -0.0146000000       -0.5772000000
C                -0.8526000000        1.3181000000       -0.2440000000
C                -1.2107000000       -1.1662000000       -0.5255000000
H                 2.7824000000       -0.4991000000       -1.0572000000
H                 2.8065000000        0.6546000000        0.2846000000
H                 1.0056000000       -0.8579000000        0.9188000000
H                -1.0401000000        1.2714000000        0.8591000000
H                -0.1855000000        2.1582000000       -0.4762000000
H                -1.8441000000        1.4381000000       -0.7085000000
H                -0.6735000000       -2.1430000000       -0.4920000000
H                -1.8859000000       -1.1887000000       -1.3986000000
H                -1.7627000000       -1.0343000000        0.4402000000



