%nprocshared=20
%mem=5GB
#p m062x/6-311+g(2df,2p) opt=(verytight,gdiis) freq IOP(2/16=3) 

Gaussian input prepared by ASE

0 1
C                 0.8685000000       -0.6163000000       -0.2345000000
C                -0.3880000000       -0.1870000000       -0.1111000000
C                 2.0111000000        0.2639000000        0.0764000000
C                -1.5396000000       -1.1409000000        0.0189000000
C                -0.7702000000        1.2440000000       -0.1203000000
H                 1.0295000000       -1.6924000000       -0.1240000000
H                 1.8642000000        0.7167000000        1.0893000000
H                 2.1990000000        1.0370000000       -0.6938000000
H                 2.9536000000       -0.3148000000        0.1596000000
H                -2.2983000000       -0.7587000000        0.7380000000
H                -1.1094000000       -2.0793000000        0.4158000000
H                -2.0519000000       -1.3211000000       -0.9377000000
H                -1.3739000000        1.5084000000       -1.0187000000
H                 0.0631000000        1.9422000000        0.0013000000
H                -1.4577000000        1.3983000000        0.7407000000



