%nprocshared=20
%mem=5GB
#p hf/6-31g* Opt=(ModRedun,Loose) Int(Grid=SG1) 

Gaussian input prepared by ASE

0 2
O                -1.9151657148        1.7043928578       -2.9976761695
O                -2.4841112530        1.2652226240       -4.0999503733
C                 0.3373000000        0.5562000000       -0.9851000000
C                 0.9880000000       -0.1118000000       -0.0102000000
C                -0.8219000000        1.4737000000       -0.7225000000
C                 2.2509722670       -0.8897780932       -0.2942450306
C                 0.4307325626       -0.0746077288        1.3891006961
H                -3.4440122250        1.4807883345       -3.9866788922
H                 0.6556000000        0.4338000000       -2.0175000000
H                -1.4889530194        1.6847861455       -1.8311077252
H                -0.4478831967        2.4482453745       -0.3445534376
H                -1.4942298092        1.0327047469        0.0428403651
H                 2.0476030141       -1.6822890305       -1.0447147643
H                 3.0373050920       -0.2082621204       -0.6810107701
H                 2.6427415385       -1.3787638938        0.6217753101
H                -0.5950809739       -0.5002848297        1.3958707903
H                 1.0549771737       -0.6604615255        2.0953636107
H                 0.3905532575        0.9752807436        1.7491084030

1 5 F
1 10 F
5 10 F

