%nprocshared=20
%mem=5GB
#p hf/6-31g* opt=(ts,calcfc,noeigentest,ModRedun) 

Gaussian input prepared by ASE

0 2
O                -3.0908173113       -0.1084778459        0.0120210316
O                -2.7249034391       -1.1704025796       -0.7576027008
C                -0.0351023425        0.3863604614       -0.8064714581
C                 0.9097809480       -0.0641176590        0.0604387103
C                -1.0940150478        1.3530970854       -0.5368808923
C                 1.0434698738        0.3918307664        1.4914358669
C                 1.9351536634       -1.0791091344       -0.3796224544
H                -2.2335555422       -1.7258916966       -0.1634289099
H                -0.0382742879       -0.0367634683       -1.7966533472
H                -2.1585416014        0.6977090391       -0.1421998794
H                -1.4846357165        1.8459234214       -1.4150896208
H                -0.9348256386        2.0441182896        0.2769893460
H                 2.0061647690        0.8729187196        1.6495576464
H                 0.2699419385        1.0838313554        1.7940874659
H                 1.0053625921       -0.4612362153        2.1649690342
H                 2.9423376108       -0.6820494061       -0.2737248051
H                 1.8855973225       -1.9751532889        0.2356925930
H                 1.7969622093       -1.3723878443       -1.4135176261

2 3 F
2 4 F
2 6 F
2 7 F
2 8 F
2 9 F
2 11 F
2 12 F
2 13 F
2 14 F
2 15 F
2 16 F
2 17 F
2 18 F
3 4 F
3 6 F
3 7 F
3 8 F
3 9 F
3 11 F
3 12 F
3 13 F
3 14 F
3 15 F
3 16 F
3 17 F
3 18 F
4 6 F
4 7 F
4 8 F
4 9 F
4 11 F
4 12 F
4 13 F
4 14 F
4 15 F
4 16 F
4 17 F
4 18 F
6 7 F
6 8 F
6 9 F
6 11 F
6 12 F
6 13 F
6 14 F
6 15 F
6 16 F
6 17 F
6 18 F
7 8 F
7 9 F
7 11 F
7 12 F
7 13 F
7 14 F
7 15 F
7 16 F
7 17 F
7 18 F
8 9 F
8 11 F
8 12 F
8 13 F
8 14 F
8 15 F
8 16 F
8 17 F
8 18 F
9 11 F
9 12 F
9 13 F
9 14 F
9 15 F
9 16 F
9 17 F
9 18 F
11 12 F
11 13 F
11 14 F
11 15 F
11 16 F
11 17 F
11 18 F
12 13 F
12 14 F
12 15 F
12 16 F
12 17 F
12 18 F
13 14 F
13 15 F
13 16 F
13 17 F
13 18 F
14 15 F
14 16 F
14 17 F
14 18 F
15 16 F
15 17 F
15 18 F
16 17 F
16 18 F
17 18 F

