%nprocshared=20
%mem=5GB
#p hf/6-31g* irc=(calcall) 

Gaussian input prepared by ASE

0 2
O                -3.1042095135       -0.0580062707        0.0110535780
O                -2.7891232603       -1.2268375345       -0.6210627030
C                 0.0043555686        0.4146392844       -0.8411688409
C                 0.9260158175       -0.0571508331        0.0417158425
C                -1.0695471499        1.3608585265       -0.5761030910
C                 1.0142809814        0.3577176414        1.4886540404
C                 1.9687895221       -1.0546591070       -0.3967840848
H                -2.3405782352       -1.7325569547        0.0464784668
H                 0.0342166571        0.0195101054       -1.8426720135
H                -2.1384289073        0.6648634729       -0.2578881696
H                -1.4368080943        1.8867437149       -1.4450758022
H                -0.9652770812        2.0086504947        0.2802697972
H                 1.9707472042        0.8348764287        1.6902329787
H                 0.2308038021        1.0401208425        1.7875743912
H                 0.9570905758       -0.5144790084        2.1358407043
H                 2.9705424106       -0.6572949712       -0.2487867093
H                 1.9042063764       -1.9685279545        0.1900948523
H                 1.8630233260       -1.3182678775       -1.4423732370



