%nprocshared=20
%mem=5GB
#p hf/6-31g* opt=(ts,calcfc,noeigentest) freq 

Gaussian input prepared by ASE

0 2
O                -3.1683897757        0.1611690131       -0.7145280953
O                -3.8903561993        1.2944963747       -0.4515602456
C                 0.2223784269        0.3768876840       -1.0891057161
C                 0.9240186716       -0.1485554273       -0.0500644380
C                -0.9151086002        1.2827399926       -1.0137837602
C                 0.6439550946        0.1451991113        1.4014962069
C                 2.0694452292       -1.0971871913       -0.2978967972
H                -4.2971821229        1.4977408511       -1.2857104185
H                 0.4990882222        0.0589740377       -2.0810905229
H                -2.0197239783        0.5942268882       -0.9073287376
H                -1.1088943169        1.8447351806       -1.9163502025
H                -1.0150896721        1.8915209616       -0.1294816803
H                 1.5085239754        0.6098518460        1.8705256928
H                -0.2087293963        0.7926689466        1.5502269265
H                 0.4516732962       -0.7794878661        1.9400182424
H                 2.2335043660       -1.2678256299       -1.3553636757
H                 2.9921894931       -0.7098666337        0.1285103476
H                 1.8835997869       -2.0592518538        0.1744399183



