%nprocshared=20
%mem=5GB
#p hf/6-31g* Opt=(ModRedun,Loose) Int(Grid=SG1) 

Gaussian input prepared by ASE

0 2
O                -3.1136002820        0.1359110536       -0.7351732027
O                -3.9485479759        1.1890397060       -0.4758296400
C                 0.2252296288        0.4037198129       -1.0803327254
C                 0.9200485411       -0.1404983999       -0.0472281598
C                -0.8860961921        1.3422876770       -0.9966647762
C                 0.6616401054        0.1622987597        1.4064651007
C                 2.0347640675       -1.1228072584       -0.3038040080
H                -4.3465705710        1.3723663354       -1.3187931578
H                 0.4835568103        0.0769352984       -2.0743505213
H                -2.0014488220        0.6634083194       -0.8902244453
H                -1.0690309673        1.9092731147       -1.8985451213
H                -0.9562301150        1.9563353794       -0.1125175284
H                 1.5454306502        0.5965454012        1.8687294399
H                -0.1668912735        0.8388905676        1.5619372834
H                 0.4415022330       -0.7553624314        1.9463223285
H                 2.1848425358       -1.2987531102       -1.3624650312
H                 2.9721098353       -0.7628931322        0.1147083520
H                 1.8241942920       -2.0786608077        0.1707188574

1 5 F
1 10 F
5 10 F

