%nprocshared=20
%mem=5GB
#p m062x/6-311+g(2df,2p) opt=(ts,calcfc,noeigentest) freq 

Gaussian input prepared by ASE

0 2
C                -0.4815000000       -0.7098000000       -0.6060000000
C                -0.8676000000        0.3553000000        0.4251000000
C                 0.7038000000       -1.5362000000       -0.1200000000
C                -2.0527000000        1.1858000000       -0.0588000000
H                -0.2061000000       -0.2202000000       -1.5653000000
H                -1.3438000000       -1.3876000000       -0.7886000000
H                -1.1399000000       -0.1338000000        1.3859000000
H                -0.0045000000        1.0324000000        0.6067000000
H                 1.7848000000       -0.7242000000        0.0930000000
H                 0.4470000000       -2.0625000000        0.8241000000
H                 0.9710000000       -2.2924000000       -0.8880000000
H                -2.9380000000        0.5353000000       -0.2239000000
H                -1.7978000000        1.7064000000       -1.0065000000
H                -2.3099000000        1.9478000000        0.7068000000
O                 3.7112898034        0.7810500279       -0.3158754501
O                 2.6885000000       -0.0181000000       -0.0988000000
H                 3.8194721182        1.2815001896        0.5317078628

2 8 F

2 15 F

8 15 F

