#p dftba opt

Gaussian input prepared by ASE

0 1
C                 1.2570000000        0.0728000000        0.2317000000
C                -1.2362000000       -0.2076000000        0.2105000000
C                 0.0035000000        0.2051000000       -0.5723000000
H                 2.1040000000       -0.3702000000       -0.3475000000
H                 1.6342000000        1.0188000000        0.6489000000
H                 1.0515000000       -0.6548000000        1.0496000000
H                -1.9141000000        0.6697000000        0.3546000000
H                -1.8390000000       -0.9594000000       -0.3598000000
H                -0.9461000000       -0.6255000000        1.2061000000
H                 0.0345000000       -0.4066000000       -1.5036000000
H                -0.1494000000        1.2577000000       -0.9182000000

