%nprocshared=20
%mem=5GB
#p m062x/6-311+g(2df,2p) opt=(ts,calcfc,noeigentest) freq 

Gaussian input prepared by ASE

0 2
O                 2.5654000000        1.2517000000        0.9276000000
O                 2.7115000000        2.5325000000        0.6630000000
C                 1.7807000000       -1.0510000000        0.5372000000
C                -2.0915000000        0.6935000000       -1.1485000000
C                 0.4775000000       -0.9315000000       -0.2451000000
C                -2.0114000000       -0.3847000000       -0.0682000000
C                -0.6534000000       -0.4065000000        0.6500000000
H                 2.5219000000        2.6089000000       -0.3060000000
H                 2.1393000000        0.1713000000        1.0379000000
H                 1.6651000000       -1.7722000000        1.3743000000
H                 2.5874000000       -1.4126000000       -0.1347000000
H                -1.4062000000        0.4599000000       -1.9893000000
H                -1.8341000000        1.6879000000       -0.7256000000
H                -3.1262000000        0.7377000000       -1.5491000000
H                 0.2076000000       -1.9312000000       -0.6498000000
H                 0.6443000000       -0.2367000000       -1.0948000000
H                -0.4049000000        0.6139000000        1.0162000000
H                -0.7463000000       -1.0699000000        1.5379000000
H                -2.8034000000       -0.1816000000        0.6850000000
H                -2.2230000000       -1.3793000000       -0.5177000000



