%nprocshared=20
%mem=5GB
#p hf/6-31g* Opt=(ModRedun,Loose) Int(Grid=SG1) 

Gaussian input prepared by ASE

0 2
O                -3.1339087551        0.4498961093       -0.8994656172
O                -4.4443158317        0.5573174393       -0.9530556476
C                 0.3373000000        0.5562000000       -0.9851000000
C                 0.9880000000       -0.1118000000       -0.0102000000
C                -0.8219000000        1.4737000000       -0.7225000000
C                 1.6789381402       -1.4272661191       -0.2807250747
C                 1.0170556181        0.4775437118        1.3760909004
H                -4.6428166127        0.6973163252       -1.9131111835
H                 0.6556000000        0.4338000000       -2.0175000000
H                -1.9488541688        0.8084145627       -0.7992969296
H                -0.8369204293        2.2825070565       -1.4828133512
H                -0.7254464782        1.9354604233        0.2823502822
H                 0.9428699537       -2.1745318386       -0.6446413140
H                 2.4726059358       -1.2887515421       -1.0444502950
H                 2.1540525098       -1.8338051756        0.6361587081
H                -0.0198112967        0.5889397446        1.7582403017
H                 1.5812648481       -0.1649268212        2.0836309127
H                 1.5033273574        1.4756950050        1.3492670036

1 5 F
1 10 F
5 10 F

