%nprocshared=20
%mem=5GB
#p m062x/6-311+g(2df,2p) opt=(ts,calcfc,noeigentest) freq 

Gaussian input prepared by ASE

0 2
C                -0.9386000000       -0.3135000000        0.5789000000
C                 0.0736000000       -1.0924000000       -0.2529000000
C                -1.5023000000        0.8671000000       -0.2047000000
H                -0.4423000000        0.0613000000        1.4996000000
H                -1.7695000000       -0.9893000000        0.8757000000
H                 1.1106000000       -0.2753000000       -0.6139000000
H                 0.4758000000       -1.9372000000        0.3450000000
H                -0.4090000000       -1.5002000000       -1.1666000000
H                -2.0195000000        0.5106000000       -1.1210000000
H                -2.2341000000        1.4154000000        0.4253000000
H                -0.6870000000        1.5652000000       -0.4911000000
O                 3.1984000000        0.6911000000       -0.1529000000
O                 1.9499000000        0.5244000000       -0.5343000000
H                 3.1940000000        0.4726000000        0.8129000000



