%nprocshared=20
%mem=5GB
#p m062x/6-311+g(2df,2p) opt=(ts,calcfc,noeigentest) freq 

Gaussian input prepared by ASE

0 2
C                -1.1592000000       -0.3665000000       -0.3709000000
C                -0.0674000000       -1.2402000000        0.2354000000
C                -1.1582000000        1.0259000000        0.2510000000
H                -0.9899000000       -0.2790000000       -1.4655000000
H                -2.1486000000       -0.8441000000       -0.2036000000
H                 1.1592000000       -0.6707000000        0.0243000000
H                -0.0833000000       -2.2421000000       -0.2431000000
H                -0.2329000000       -1.3638000000        1.3270000000
H                -1.9610000000        1.6390000000       -0.2100000000
H                -1.3447000000        0.9606000000        1.3442000000
H                -0.1827000000        1.5272000000        0.0741000000
O                 3.1614000000        0.5889000000       -0.0653000000
O                 2.1558000000       -0.2163000000       -0.3341000000
H                 2.8515000000        1.4810000000       -0.3633000000



