#p hf/6-31g* force 

Gaussian input prepared by ASE

0 1
C                 0.6172000000       -0.3059000000        0.6412000000
C                -0.6374000000       -0.4273000000       -0.1732000000
C                 1.7273000000        0.4287000000       -0.0770000000
C                -1.7754000000        0.1918000000        0.6308000000
H                 0.4522000000        0.1760000000        1.6373000000
H                 0.9997000000       -1.3312000000        0.8759000000
H                -0.5594000000        0.0069000000       -1.1835000000
H                -0.9339000000       -1.5018000000       -0.2853000000
H                 2.4473000000        0.8241000000        0.6846000000
H                 2.3086000000       -0.3282000000       -0.6549000000
H                 1.3680000000        1.2655000000       -0.6934000000
H                -1.6984000000       -0.1984000000        1.6642000000
H                -1.5749000000        1.2695000000        0.6647000000
H                -2.7409000000       -0.0696000000        0.1497000000



