%nprocshared=20
%mem=5GB
#p m062x/6-311+g(2df,2p) opt=(verytight,gdiis) freq IOP(2/16=3) 

Gaussian input prepared by ASE

0 1
O                 0.5685000000        0.2787000000        0.3170000000
O                -0.6072000000        0.3631000000       -0.2653000000
H                 1.2050000000       -0.2895000000       -0.1693000000
H                -1.1663000000       -0.3523000000        0.1177000000



