%nprocshared=20
%mem=5GB
#p m062x/6-311+g(2df,2p) opt=(verytight,gdiis) freq IOP(2/16=3) 

Gaussian input prepared by ASE

0 1
C                 1.9045000000       -0.0614000000        0.0630000000
C                -1.8388000000        0.1247000000        0.2819000000
C                 0.5022000000       -0.5748000000       -0.1818000000
C                -0.5101000000        0.5216000000       -0.3339000000
H                 2.2218000000        0.6862000000       -0.6862000000
H                 2.5689000000       -0.9391000000        0.1273000000
H                 1.8549000000        0.4845000000        1.0387000000
H                -2.5036000000        1.0193000000        0.3567000000
H                -2.3379000000       -0.6156000000       -0.3921000000
H                -1.7300000000       -0.3290000000        1.2784000000
H                 0.2348000000       -1.1683000000        0.7285000000
H                 0.4698000000       -1.3059000000       -1.0287000000
H                -0.1611000000        1.4762000000        0.1277000000
H                -0.6753000000        0.6815000000       -1.4095000000



