%nprocshared=20
%mem=5GB
#p m062x/6-311+g(2df,2p) Opt=(ModRedun,Loose) Int(Grid=SG1) 

Gaussian input prepared by ASE

0 2
O                 2.5914000000        0.0423000000       -0.4662000000
O                 3.4557000000        0.9885000000       -0.1667000000
C                 0.7395000000       -1.5479000000        0.0767000000
C                -2.0703000000        1.1196000000        0.0969000000
C                -0.5445000000       -0.8404000000       -0.3411000000
C                -0.7866000000        0.4077000000        0.5136000000
H                 3.0641000000        1.8129000000       -0.5508000000
H                 1.8078000000       -0.7051000000       -0.0710000000
H                 0.6731000000       -1.8759000000        1.1360000000
H                 0.8983000000       -2.4412000000       -0.5635000000
H                -2.2199000000        2.0182000000        0.7319000000
H                -2.9441000000        0.4455000000        0.2241000000
H                -2.0061000000        1.4413000000       -0.9644000000
H                -1.3977000000       -1.5447000000       -0.2297000000
H                -0.4611000000       -0.5513000000       -1.4112000000
H                -0.8668000000        0.1194000000        1.5845000000
H                 0.0672000000        1.1111000000        0.4011000000

1 3 F
1 8 F
3 8 F

