%nprocshared=20
%mem=5GB
#p m062x/6-311+g(2df,2p) opt=(ts,calcfc,noeigentest) freq 

Gaussian input prepared by ASE

0 2
O                 2.5199844572        0.1597281203       -0.7362155714
O                 2.7965515086        0.6042033101        0.5438815655
C                 0.8123932399       -1.5429555677       -0.0963125306
C                -1.9663920855        1.1669042553        0.0964902456
C                -0.5135096402       -0.8721540624       -0.3234414976
C                -0.5764887017        0.5559885020        0.2179793531
H                 2.1766278653        1.3324592591        0.6746795557
H                 1.7443779056       -0.7156040086       -0.5588206591
H                 1.1616688456       -1.5748785015        0.9364353648
H                 0.9906417813       -2.4659203508       -0.6425142508
H                -1.9841421155        2.1899006569        0.4696560421
H                -2.6968768075        0.5900098992        0.6629753764
H                -2.2933783907        1.1874562017       -0.9440337527
H                -1.3032958023       -1.4664996422        0.1550402799
H                -0.7478571686       -0.8691177471       -1.3908624769
H                -0.2640643760        0.5543597886        1.2668116515
H                 0.1437594844        1.1661198868       -0.3315486956



