%nprocshared=20
%mem=5GB
#p hf/6-31g* opt=(verytight,gdiis) freq IOP(2/16=3) 

Gaussian input prepared by ASE

0 1
C                 0.8685000000       -0.6163000000       -0.2345000000
C                -0.3880000000       -0.1870000000       -0.1111000000
C                 2.0111000000        0.2639000000        0.0764000000
C                -1.5588771476       -1.0615176948       -0.4535518604
C                -0.7477935556        1.1778964405        0.3378195741
H                 1.0295000000       -1.6924000000       -0.1240000000
H                 1.8642000000        0.7167000000        1.0893000000
H                 2.1990000000        1.0370000000       -0.6938000000
H                 2.9536000000       -0.3148000000        0.1596000000
H                -2.3965445265       -0.9098458213        0.2634672084
H                -1.1936266689       -2.1016152448       -0.3641908825
H                -1.9499003517       -0.8712913282       -1.4639585475
H                -1.2311003329        1.7695660717       -0.4732446752
H                 0.0726114464        1.7436238951        0.7889811524
H                -1.5354569257        1.0630922131        1.1151175510



